Localizador/JMLT310/CargasBT_DU03_2023124950_JMLT310_--MBS-1P-T--.dss
New "Load.BT_295227377_M1" bus1="NODE#482978841.1.2" phases=1 conn=Delta model=2 kv=0.240000000 kw = 0.0 pf=0.92 status=variable vmaxpu=1.5 vminpu=0.92 daily="COM2_17_DU"  
New "Load.BT_295227377_M2" bus1="NODE#482978841.1.2" phases=1 conn=Delta model=3 kv=0.240000000 kw = 0.0 pf=0.92 status=variable vmaxpu=1.5 vminpu=0.92 daily="COM2_17_DU" 


New "Load.BT_324074522_1_M1" bus1="NODE#512410002.1.2.3" phases=3 conn=Delta model=2 kv=0.220000000 kw = 0.06712 pf=0.92 status=variable vmaxpu=1.5 vminpu=0.92 daily="RES1_7_DU"  
New "Load.BT_324074522_1_M2" bus1="NODE#512410002.1.2.3" phases=3 conn=Delta model=3 kv=0.220000000 kw = 0.06712 pf=0.92 status=variable vmaxpu=1.5 vminpu=0.92 daily="RES1_7_DU" 



New "Load.BT_295227924_M1" bus1="NODE#483015928.3" phases=1 conn=Wye model=2 kv=0.220000000 kw = 0.0 pf=0.92 status=variable vmaxpu=1.5 vminpu=0.92 daily="RES3_11_DU"  
New "Load.BT_295227924_M2" bus1="NODE#483015928.3" phases=1 conn=Wye model=3 kv=0.220000000 kw = 0.0 pf=0.92 status=variable vmaxpu=1.5 vminpu=0.92 daily="RES3_11_DU" 







New "Load.BT_295142007_1_M1" bus1="NODE#482826805.2" phases=1 conn=Wye model=2 kv=0.220000000 kw = 0.06712 pf=0.92 status=variable vmaxpu=1.5 vminpu=0.92 daily="RES1_7_DU"  
New "Load.BT_295142007_1_M2" bus1="NODE#482826805.2" phases=1 conn=Wye model=3 kv=0.220000000 kw = 0.06712 pf=0.92 status=variable vmaxpu=1.5 vminpu=0.92 daily="RES1_7_DU" 



New "Load.BT_324075093_1_M1" bus1="NODE#512430037.1.2.3" phases=3 conn=Delta model=2 kv=0.220000000 kw = 0.0 pf=0.92 status=variable vmaxpu=1.5 vminpu=0.92 daily="RES4_20_DU"  
New "Load.BT_324075093_1_M2" bus1="NODE#512430037.1.2.3" phases=3 conn=Delta model=3 kv=0.220000000 kw = 0.0 pf=0.92 status=variable vmaxpu=1.5 vminpu=0.92 daily="RES4_20_DU" 






New "Load.BT_295228633_M1" bus1="NODE#483053825.2.3" phases=1 conn=Delta model=2 kv=0.220000000 kw = 0.0 pf=0.92 status=variable vmaxpu=1.5 vminpu=0.92 daily="RES3_15_DU"  
New "Load.BT_295228633_M2" bus1="NODE#483053825.2.3" phases=1 conn=Delta model=3 kv=0.220000000 kw = 0.0 pf=0.92 status=variable vmaxpu=1.5 vminpu=0.92 daily="RES3_15_DU" 






New "Load.BT_324073151_1_M1" bus1="NODE#512390249.1.2.3" phases=3 conn=Delta model=2 kv=0.220000000 kw = 0.0 pf=0.92 status=variable vmaxpu=1.5 vminpu=0.92 daily="RES6_12_DU"  
New "Load.BT_324073151_1_M2" bus1="NODE#512390249.1.2.3" phases=3 conn=Delta model=3 kv=0.220000000 kw = 0.0 pf=0.92 status=variable vmaxpu=1.5 vminpu=0.92 daily="RES6_12_DU" 






New "Load.BT_295143506_1_M1" bus1="NODE#482868654.1.2" phases=1 conn=Delta model=2 kv=0.220000000 kw = 0.0813095 pf=0.92 status=variable vmaxpu=1.5 vminpu=0.92 daily="RES1_14_DU"  
New "Load.BT_295143506_1_M2" bus1="NODE#482868654.1.2" phases=1 conn=Delta model=3 kv=0.220000000 kw = 0.0813095 pf=0.92 status=variable vmaxpu=1.5 vminpu=0.92 daily="RES1_14_DU" 


New "Load.BT_295228171_M1" bus1="NODE#483017163.3" phases=1 conn=Wye model=2 kv=0.220000000 kw = 0.0 pf=0.92 status=variable vmaxpu=1.5 vminpu=0.92 daily="RES1_2_DU"  
New "Load.BT_295228171_M2" bus1="NODE#483017163.3" phases=1 conn=Wye model=3 kv=0.220000000 kw = 0.0 pf=0.92 status=variable vmaxpu=1.5 vminpu=0.92 daily="RES1_2_DU" 


New "Load.BT_324072989_1_M1" bus1="NODE#512389437.1.2.3" phases=3 conn=Delta model=2 kv=0.220000000 kw = 0.0 pf=0.92 status=variable vmaxpu=1.5 vminpu=0.92 daily="RES1_2_DU"  
New "Load.BT_324072989_1_M2" bus1="NODE#512389437.1.2.3" phases=3 conn=Delta model=3 kv=0.220000000 kw = 0.0 pf=0.92 status=variable vmaxpu=1.5 vminpu=0.92 daily="RES1_2_DU" 
New "Load.BT_295142007_2_M1" bus1="NODE#482826805.2" phases=1 conn=Wye model=2 kv=0.220000000 kw = 0.038626 pf=0.92 status=variable vmaxpu=1.5 vminpu=0.92 daily="RES1_25_DU"  
New "Load.BT_295142007_2_M2" bus1="NODE#482826805.2" phases=1 conn=Wye model=3 kv=0.220000000 kw = 0.038626 pf=0.92 status=variable vmaxpu=1.5 vminpu=0.92 daily="RES1_25_DU" 



New "Load.BT_300143606_M1" bus1="NODE#496477488.1" phases=1 conn=Wye model=2 kv=0.220000000 kw = 0.0813095 pf=0.92 status=variable vmaxpu=1.5 vminpu=0.92 daily="RES1_14_DU"  
New "Load.BT_300143606_M2" bus1="NODE#496477488.1" phases=1 conn=Wye model=3 kv=0.220000000 kw = 0.0813095 pf=0.92 status=variable vmaxpu=1.5 vminpu=0.92 daily="RES1_14_DU" 
New "Load.BT_ _1_M1" bus1="NODE#483017968.3" phases=1 conn=Wye model=2 kv=0.220000000 kw = 0.1324725 pf=0.92 status=variable vmaxpu=1.5 vminpu=0.92 daily="RES2_23_DU"  
New "Load.BT_ _1_M2" bus1="NODE#483017968.3" phases=1 conn=Wye model=3 kv=0.220000000 kw = 0.1324725 pf=0.92 status=variable vmaxpu=1.5 vminpu=0.92 daily="RES2_23_DU" 



New "Load.BT_324074700_1_M1" bus1="NODE#512410894.1.2.3" phases=3 conn=Delta model=2 kv=0.220000000 kw = 0.038626 pf=0.92 status=variable vmaxpu=1.5 vminpu=0.92 daily="RES1_25_DU"  
New "Load.BT_324074700_1_M2" bus1="NODE#512410894.1.2.3" phases=3 conn=Delta model=3 kv=0.220000000 kw = 0.038626 pf=0.92 status=variable vmaxpu=1.5 vminpu=0.92 daily="RES1_25_DU" 







New "Load.BT_299765578_M1" bus1="NODE#494887878.3" phases=1 conn=Wye model=2 kv=0.220000000 kw = 0.0 pf=0.92 status=variable vmaxpu=1.5 vminpu=0.92 daily="RES2_10_DU"  
New "Load.BT_299765578_M2" bus1="NODE#494887878.3" phases=1 conn=Wye model=3 kv=0.220000000 kw = 0.0 pf=0.92 status=variable vmaxpu=1.5 vminpu=0.92 daily="RES2_10_DU" 











New "Load.BT_ _2_M1" bus1="NODE#496371223.1" phases=1 conn=Wye model=2 kv=0.220000000 kw = 0.1092825 pf=0.92 status=variable vmaxpu=1.5 vminpu=0.92 daily="RES2_22_DU"  
New "Load.BT_ _2_M2" bus1="NODE#496371223.1" phases=1 conn=Wye model=3 kv=0.220000000 kw = 0.1092825 pf=0.92 status=variable vmaxpu=1.5 vminpu=0.92 daily="RES2_22_DU" 





New "Load.BT_300144469_1_M1" bus1="NODE#496550515.2" phases=1 conn=Wye model=2 kv=0.220000000 kw = 0.0 pf=0.92 status=variable vmaxpu=1.5 vminpu=0.92 daily="RES1_10_DU"  
New "Load.BT_300144469_1_M2" bus1="NODE#496550515.2" phases=1 conn=Wye model=3 kv=0.220000000 kw = 0.0 pf=0.92 status=variable vmaxpu=1.5 vminpu=0.92 daily="RES1_10_DU" 

New "Load.BT_295227798_M1" bus1="NODE#483015298.2" phases=1 conn=Wye model=2 kv=0.220000000 kw = 0.1869545 pf=0.92 status=variable vmaxpu=1.5 vminpu=0.92 daily="RES1_1_DU"  
New "Load.BT_295227798_M2" bus1="NODE#483015298.2" phases=1 conn=Wye model=3 kv=0.220000000 kw = 0.1869545 pf=0.92 status=variable vmaxpu=1.5 vminpu=0.92 daily="RES1_1_DU" 
New "Load.BT_295227806_1_M1" bus1="NODE#483015338.1.2.3" phases=3 conn=Delta model=2 kv=0.220000000 kw = 0.0615655 pf=0.92 status=variable vmaxpu=1.5 vminpu=0.92 daily="RES1_20_DU"  
New "Load.BT_295227806_1_M2" bus1="NODE#483015338.1.2.3" phases=3 conn=Delta model=3 kv=0.220000000 kw = 0.0615655 pf=0.92 status=variable vmaxpu=1.5 vminpu=0.92 daily="RES1_20_DU" 











New "Load.BT_295225717_1_M1" bus1="NODE#482897543.1.2.3" phases=3 conn=Delta model=2 kv=0.220000000 kw = 0.0680495 pf=0.92 status=variable vmaxpu=1.5 vminpu=0.92 daily="COM1_23_DU"  
New "Load.BT_295225717_1_M2" bus1="NODE#482897543.1.2.3" phases=3 conn=Delta model=3 kv=0.220000000 kw = 0.0680495 pf=0.92 status=variable vmaxpu=1.5 vminpu=0.92 daily="COM1_23_DU" 

New "Load.BT_1207425600_M1" bus1="NODE#1503250024.3.4" phases=1 conn=Wye model=2 kv=0.220000000 kw = 0.0615655 pf=0.92 status=variable vmaxpu=1.5 vminpu=0.92 daily="RES1_20_DU"  
New "Load.BT_1207425600_M2" bus1="NODE#1503250024.3.4" phases=1 conn=Wye model=3 kv=0.220000000 kw = 0.0615655 pf=0.92 status=variable vmaxpu=1.5 vminpu=0.92 daily="RES1_20_DU" 









New "Load.BT_295227900_M1" bus1="NODE#483015808.2" phases=1 conn=Wye model=2 kv=0.120000000 kw = 0.0 pf=0.92 status=variable vmaxpu=1.5 vminpu=0.92 daily="RES2_18_DU"  
New "Load.BT_295227900_M2" bus1="NODE#483015808.2" phases=1 conn=Wye model=3 kv=0.120000000 kw = 0.0 pf=0.92 status=variable vmaxpu=1.5 vminpu=0.92 daily="RES2_18_DU" 



New "Load.BT_2081619806_1_M1" bus1="NODE#2394072904.1.2.3.4" phases=3 conn=Delta model=2 kv=0.220000000 kw = 0.06712 pf=0.92 status=variable vmaxpu=1.5 vminpu=0.92 daily="RES1_7_DU"  
New "Load.BT_2081619806_1_M2" bus1="NODE#2394072904.1.2.3.4" phases=3 conn=Delta model=3 kv=0.220000000 kw = 0.06712 pf=0.92 status=variable vmaxpu=1.5 vminpu=0.92 daily="RES1_7_DU" 



New "Load.BT_295227814_1_M1" bus1="NODE#483015378.1.2.3" phases=3 conn=Delta model=2 kv=0.220000000 kw = 0.0595785 pf=0.92 status=variable vmaxpu=1.5 vminpu=0.92 daily="RES1_22_DU"  
New "Load.BT_295227814_1_M2" bus1="NODE#483015378.1.2.3" phases=3 conn=Delta model=3 kv=0.220000000 kw = 0.0595785 pf=0.92 status=variable vmaxpu=1.5 vminpu=0.92 daily="RES1_22_DU" 



New "Load.BT_ _3_M1" bus1="NODE#483053920.1.2" phases=1 conn=Delta model=2 kv=0.220000000 kw = 1.477591 pf=0.92 status=variable vmaxpu=1.5 vminpu=0.92 daily="COM3_9_DU"  
New "Load.BT_ _3_M2" bus1="NODE#483053920.1.2" phases=1 conn=Delta model=3 kv=0.220000000 kw = 1.477591 pf=0.92 status=variable vmaxpu=1.5 vminpu=0.92 daily="COM3_9_DU" 
New "Load.BT_295226233_M1" bus1="NODE#482938769.1.2.3" phases=3 conn=Delta model=2 kv=0.220000000 kw = 0.0 pf=0.92 status=variable vmaxpu=1.5 vminpu=0.92 daily="RES2_2_DU"  
New "Load.BT_295226233_M2" bus1="NODE#482938769.1.2.3" phases=3 conn=Delta model=3 kv=0.220000000 kw = 0.0 pf=0.92 status=variable vmaxpu=1.5 vminpu=0.92 daily="RES2_2_DU" 

New "Load.BT_299766255_1_M1" bus1="NODE#494891263.1.2" phases=1 conn=Delta model=2 kv=0.240000000 kw = 0.0 pf=0.92 status=variable vmaxpu=1.5 vminpu=0.92 daily="RES2_26_DU"  
New "Load.BT_299766255_1_M2" bus1="NODE#494891263.1.2" phases=1 conn=Delta model=3 kv=0.240000000 kw = 0.0 pf=0.92 status=variable vmaxpu=1.5 vminpu=0.92 daily="RES2_26_DU" 
New "Load.BT_295228054_1_M1" bus1="NODE#483016578.1.2" phases=1 conn=Delta model=2 kv=0.220000000 kw = 0.0 pf=0.92 status=variable vmaxpu=1.5 vminpu=0.92 daily="RES2_10_DU"  
New "Load.BT_295228054_1_M2" bus1="NODE#483016578.1.2" phases=1 conn=Delta model=3 kv=0.220000000 kw = 0.0 pf=0.92 status=variable vmaxpu=1.5 vminpu=0.92 daily="RES2_10_DU" 

New "Load.BT_299768350_M1" bus1="NODE#495374088.1" phases=1 conn=Wye model=2 kv=0.220000000 kw = 0.0 pf=0.92 status=variable vmaxpu=1.5 vminpu=0.92 daily="RES2_4_DU"  
New "Load.BT_299768350_M2" bus1="NODE#495374088.1" phases=1 conn=Wye model=3 kv=0.220000000 kw = 0.0 pf=0.92 status=variable vmaxpu=1.5 vminpu=0.92 daily="RES2_4_DU" 








New "Load.BT_295226533_1_M1" bus1="NODE#482940269.3.1" phases=1 conn=Delta model=2 kv=0.220000000 kw = 0.0 pf=0.92 status=variable vmaxpu=1.5 vminpu=0.92 daily="RES2_15_DU"  
New "Load.BT_295226533_1_M2" bus1="NODE#482940269.3.1" phases=1 conn=Delta model=3 kv=0.220000000 kw = 0.0 pf=0.92 status=variable vmaxpu=1.5 vminpu=0.92 daily="RES2_15_DU" 
















New "Load.BT_299955485_1_M1" bus1="NODE#495863207.1.2.3" phases=3 conn=Delta model=2 kv=0.220000000 kw = 0.0 pf=0.92 status=variable vmaxpu=1.5 vminpu=0.92 daily="RES1_2_DU"  
New "Load.BT_299955485_1_M2" bus1="NODE#495863207.1.2.3" phases=3 conn=Delta model=3 kv=0.220000000 kw = 0.0 pf=0.92 status=variable vmaxpu=1.5 vminpu=0.92 daily="RES1_2_DU" 
New "Load.BT_295142007_5_M1" bus1="NODE#482826805.2" phases=1 conn=Wye model=2 kv=0.220000000 kw = 0.034644 pf=0.92 status=variable vmaxpu=1.5 vminpu=0.92 daily="RES1_23_DU"  
New "Load.BT_295142007_5_M2" bus1="NODE#482826805.2" phases=1 conn=Wye model=3 kv=0.220000000 kw = 0.034644 pf=0.92 status=variable vmaxpu=1.5 vminpu=0.92 daily="RES1_23_DU" 




New "Load.BT_295431795_1_M1" bus1="NODE#483489947.1.2" phases=1 conn=Delta model=2 kv=0.220000000 kw = 0.0 pf=0.92 status=variable vmaxpu=1.5 vminpu=0.92 daily="RES1_1_DU"  
New "Load.BT_295431795_1_M2" bus1="NODE#483489947.1.2" phases=1 conn=Delta model=3 kv=0.220000000 kw = 0.0 pf=0.92 status=variable vmaxpu=1.5 vminpu=0.92 daily="RES1_1_DU" 






New "Load.BT_295227788_M1" bus1="NODE#483015248.3" phases=1 conn=Wye model=2 kv=0.220000000 kw = 0.0 pf=0.92 status=variable vmaxpu=1.5 vminpu=0.92 daily="COM1_21_DU"  
New "Load.BT_295227788_M2" bus1="NODE#483015248.3" phases=1 conn=Wye model=3 kv=0.220000000 kw = 0.0 pf=0.92 status=variable vmaxpu=1.5 vminpu=0.92 daily="COM1_21_DU" 
New "Load.BT_295227618_1_M1" bus1="NODE#482980046.1.2" phases=1 conn=Delta model=2 kv=0.240000000 kw = 0.06712 pf=0.92 status=variable vmaxpu=1.5 vminpu=0.92 daily="RES1_7_DU"  
New "Load.BT_295227618_1_M2" bus1="NODE#482980046.1.2" phases=1 conn=Delta model=3 kv=0.240000000 kw = 0.06712 pf=0.92 status=variable vmaxpu=1.5 vminpu=0.92 daily="RES1_7_DU" 



New "Load.BT_ _4_M1" bus1="NODE#482828702.1.2.3" phases=3 conn=Delta model=2 kv=0.220000000 kw = 1.304326 pf=0.92 status=variable vmaxpu=1.5 vminpu=0.92 daily="COM3_11_DU"  
New "Load.BT_ _4_M2" bus1="NODE#482828702.1.2.3" phases=3 conn=Delta model=3 kv=0.220000000 kw = 1.304326 pf=0.92 status=variable vmaxpu=1.5 vminpu=0.92 daily="COM3_11_DU" 


New "Load.BT_324074389_M1" bus1="NODE#512409337.1.2.3" phases=3 conn=Delta model=2 kv=0.220000000 kw = 0.0 pf=0.92 status=variable vmaxpu=1.5 vminpu=0.92 daily="RES5_17_DU"  
New "Load.BT_324074389_M2" bus1="NODE#512409337.1.2.3" phases=3 conn=Delta model=3 kv=0.220000000 kw = 0.0 pf=0.92 status=variable vmaxpu=1.5 vminpu=0.92 daily="RES5_17_DU" 





New "Load.BT_295228059_1_M1" bus1="NODE#483016603.1.2.3" phases=3 conn=Delta model=2 kv=0.220000000 kw = 0.0 pf=0.92 status=variable vmaxpu=1.5 vminpu=0.92 daily="RES2_2_DU"  
New "Load.BT_295228059_1_M2" bus1="NODE#483016603.1.2.3" phases=3 conn=Delta model=3 kv=0.220000000 kw = 0.0 pf=0.92 status=variable vmaxpu=1.5 vminpu=0.92 daily="RES2_2_DU" 
New "Load.BT_ _5_M1" bus1="NODE#464498517.1.2.3.4" phases=3 conn=Delta model=2 kv=0.220000000 kw = 4.092902 pf=0.92 status=variable vmaxpu=1.5 vminpu=0.92 daily="COM1_10_DU"  
New "Load.BT_ _5_M2" bus1="NODE#464498517.1.2.3.4" phases=3 conn=Delta model=3 kv=0.220000000 kw = 4.092902 pf=0.92 status=variable vmaxpu=1.5 vminpu=0.92 daily="COM1_10_DU" 



New "Load.BT_295227098_1_M1" bus1="NODE#482977446.2" phases=1 conn=Wye model=2 kv=0.220000000 kw = 0.0 pf=0.92 status=variable vmaxpu=1.5 vminpu=0.92 daily="RES2_1_DU"  
New "Load.BT_295227098_1_M2" bus1="NODE#482977446.2" phases=1 conn=Wye model=3 kv=0.220000000 kw = 0.0 pf=0.92 status=variable vmaxpu=1.5 vminpu=0.92 daily="RES2_1_DU" 


New "Load.BT_323836146_1_M1" bus1="NODE#512386070.1.2" phases=1 conn=Delta model=2 kv=0.220000000 kw = 0.113832 pf=0.92 status=variable vmaxpu=1.5 vminpu=0.92 daily="RES1_8_DU"  
New "Load.BT_323836146_1_M2" bus1="NODE#512386070.1.2" phases=1 conn=Delta model=3 kv=0.220000000 kw = 0.113832 pf=0.92 status=variable vmaxpu=1.5 vminpu=0.92 daily="RES1_8_DU" 
New "Load.BT_295228613_1_M1" bus1="NODE#483053725.2.3" phases=1 conn=Delta model=2 kv=0.220000000 kw = 0.0 pf=0.92 status=variable vmaxpu=1.5 vminpu=0.92 daily="RES3_19_DU"  
New "Load.BT_295228613_1_M2" bus1="NODE#483053725.2.3" phases=1 conn=Delta model=3 kv=0.220000000 kw = 0.0 pf=0.92 status=variable vmaxpu=1.5 vminpu=0.92 daily="RES3_19_DU" 

New "Load.BT_ _6_M1" bus1="NODE#494598840.1.2" phases=1 conn=Delta model=2 kv=0.240000000 kw = 0.2136595 pf=0.92 status=variable vmaxpu=1.5 vminpu=0.92 daily="RES1_24_DU"  
New "Load.BT_ _6_M2" bus1="NODE#494598840.1.2" phases=1 conn=Delta model=3 kv=0.240000000 kw = 0.2136595 pf=0.92 status=variable vmaxpu=1.5 vminpu=0.92 daily="RES1_24_DU" 


New "Load.BT_295227764_1_M1" bus1="NODE#483015128.1.2" phases=1 conn=Delta model=2 kv=0.240000000 kw = 0.0 pf=0.92 status=variable vmaxpu=1.5 vminpu=0.92 daily="RES1_11_DU"  
New "Load.BT_295227764_1_M2" bus1="NODE#483015128.1.2" phases=1 conn=Delta model=3 kv=0.240000000 kw = 0.0 pf=0.92 status=variable vmaxpu=1.5 vminpu=0.92 daily="RES1_11_DU" 






New "Load.BT_ _7_M1" bus1="NODE#483054855.2" phases=1 conn=Wye model=2 kv=0.220000000 kw = 0.361535 pf=0.92 status=variable vmaxpu=1.5 vminpu=0.92 daily="RES2_14_DU"  
New "Load.BT_ _7_M2" bus1="NODE#483054855.2" phases=1 conn=Wye model=3 kv=0.220000000 kw = 0.361535 pf=0.92 status=variable vmaxpu=1.5 vminpu=0.92 daily="RES2_14_DU" 




New "Load.BT_ _8_M1" bus1="NODE#482865719.2.3" phases=1 conn=Delta model=2 kv=0.220000000 kw = 0.4052105 pf=0.92 status=variable vmaxpu=1.5 vminpu=0.92 daily="RES2_14_DU"  
New "Load.BT_ _8_M2" bus1="NODE#482865719.2.3" phases=1 conn=Delta model=3 kv=0.220000000 kw = 0.4052105 pf=0.92 status=variable vmaxpu=1.5 vminpu=0.92 daily="RES2_14_DU" 







New "Load.BT_299571880_1_M1" bus1="NODE#493940840.1.2" phases=1 conn=Delta model=2 kv=0.240000000 kw = 0.0767155 pf=0.92 status=variable vmaxpu=1.5 vminpu=0.92 daily="RES1_26_DU"  
New "Load.BT_299571880_1_M2" bus1="NODE#493940840.1.2" phases=1 conn=Delta model=3 kv=0.240000000 kw = 0.0767155 pf=0.92 status=variable vmaxpu=1.5 vminpu=0.92 daily="RES1_26_DU" 


New "Load.BT_295227901_1_M1" bus1="NODE#483015813.1.2" phases=1 conn=Delta model=2 kv=0.240000000 kw = 0.0 pf=0.92 status=variable vmaxpu=1.5 vminpu=0.92 daily="RES1_2_DU"  
New "Load.BT_295227901_1_M2" bus1="NODE#483015813.1.2" phases=1 conn=Delta model=3 kv=0.240000000 kw = 0.0 pf=0.92 status=variable vmaxpu=1.5 vminpu=0.92 daily="RES1_2_DU" 






New "Load.BT_295226547_1_M1" bus1="NODE#482940339.3.1" phases=1 conn=Delta model=2 kv=0.220000000 kw = 0.0 pf=0.92 status=variable vmaxpu=1.5 vminpu=0.92 daily="RES2_1_DU"  
New "Load.BT_295226547_1_M2" bus1="NODE#482940339.3.1" phases=1 conn=Delta model=3 kv=0.220000000 kw = 0.0 pf=0.92 status=variable vmaxpu=1.5 vminpu=0.92 daily="RES2_1_DU" 



New "Load.BT_295227131_1_M1" bus1="NODE#482977611.1.2" phases=1 conn=Delta model=2 kv=0.220000000 kw = 0.0 pf=0.92 status=variable vmaxpu=1.5 vminpu=0.92 daily="RES1_16_DU"  
New "Load.BT_295227131_1_M2" bus1="NODE#482977611.1.2" phases=1 conn=Delta model=3 kv=0.220000000 kw = 0.0 pf=0.92 status=variable vmaxpu=1.5 vminpu=0.92 daily="RES1_16_DU" 





New "Load.BT_295227089_M1" bus1="NODE#482977401.2.3" phases=1 conn=Delta model=2 kv=0.220000000 kw = 0.0 pf=0.92 status=variable vmaxpu=1.5 vminpu=0.92 daily="RES2_4_DU"  
New "Load.BT_295227089_M2" bus1="NODE#482977401.2.3" phases=1 conn=Delta model=3 kv=0.220000000 kw = 0.0 pf=0.92 status=variable vmaxpu=1.5 vminpu=0.92 daily="RES2_4_DU" 










New "Load.BT_295228443_1_M1" bus1="NODE#483018523.1" phases=1 conn=Wye model=2 kv=0.220000000 kw = 0.0839635 pf=0.92 status=variable vmaxpu=1.5 vminpu=0.92 daily="RES1_9_DU"  
New "Load.BT_295228443_1_M2" bus1="NODE#483018523.1" phases=1 conn=Wye model=3 kv=0.220000000 kw = 0.0839635 pf=0.92 status=variable vmaxpu=1.5 vminpu=0.92 daily="RES1_9_DU" 
New "Load.BT_324075644_1_M1" bus1="NODE#512432816.1.2.3" phases=3 conn=Delta model=2 kv=0.220000000 kw = 0.1391495 pf=0.92 status=variable vmaxpu=1.5 vminpu=0.92 daily="RES1_5_DU"  
New "Load.BT_324075644_1_M2" bus1="NODE#512432816.1.2.3" phases=3 conn=Delta model=3 kv=0.220000000 kw = 0.1391495 pf=0.92 status=variable vmaxpu=1.5 vminpu=0.92 daily="RES1_5_DU" 




New "Load.BT_295227098_2_M1" bus1="NODE#482977446.2" phases=1 conn=Wye model=2 kv=0.220000000 kw = 0.1391495 pf=0.92 status=variable vmaxpu=1.5 vminpu=0.92 daily="RES1_5_DU"  
New "Load.BT_295227098_2_M2" bus1="NODE#482977446.2" phases=1 conn=Wye model=3 kv=0.220000000 kw = 0.1391495 pf=0.92 status=variable vmaxpu=1.5 vminpu=0.92 daily="RES1_5_DU" 
New "Load.BT_324074811_1_M1" bus1="NODE#512411449.1.2.3" phases=3 conn=Delta model=2 kv=0.220000000 kw = 0.0400135 pf=0.92 status=variable vmaxpu=1.5 vminpu=0.92 daily="RES1_21_DU"  
New "Load.BT_324074811_1_M2" bus1="NODE#512411449.1.2.3" phases=3 conn=Delta model=3 kv=0.220000000 kw = 0.0400135 pf=0.92 status=variable vmaxpu=1.5 vminpu=0.92 daily="RES1_21_DU" 




New "Load.BT_324075582_2_M1" bus1="NODE#512432506.1.2.3" phases=3 conn=Delta model=2 kv=0.220000000 kw = 0.034644 pf=0.92 status=variable vmaxpu=1.5 vminpu=0.92 daily="RES1_23_DU"  
New "Load.BT_324075582_2_M2" bus1="NODE#512432506.1.2.3" phases=3 conn=Delta model=3 kv=0.220000000 kw = 0.034644 pf=0.92 status=variable vmaxpu=1.5 vminpu=0.92 daily="RES1_23_DU" 








New "Load.BT_ _9_M1" bus1="NODE#497189379.1.2.3" phases=3 conn=Delta model=2 kv=0.220000000 kw = 1.386371 pf=0.92 status=variable vmaxpu=1.5 vminpu=0.92 daily="RES5_5_DU"  
New "Load.BT_ _9_M2" bus1="NODE#497189379.1.2.3" phases=3 conn=Delta model=3 kv=0.220000000 kw = 1.386371 pf=0.92 status=variable vmaxpu=1.5 vminpu=0.92 daily="RES5_5_DU" 





New "Load.BT_295227814_2_M1" bus1="NODE#483015378.1.2.3" phases=3 conn=Delta model=2 kv=0.220000000 kw = 0.1391495 pf=0.92 status=variable vmaxpu=1.5 vminpu=0.92 daily="RES1_5_DU"  
New "Load.BT_295227814_2_M2" bus1="NODE#483015378.1.2.3" phases=3 conn=Delta model=3 kv=0.220000000 kw = 0.1391495 pf=0.92 status=variable vmaxpu=1.5 vminpu=0.92 daily="RES1_5_DU" 
New "Load.BT_299389553_1_M1" bus1="NODE#493621771.1.2.3" phases=3 conn=Delta model=2 kv=0.220000000 kw = 0.0 pf=0.92 status=variable vmaxpu=1.5 vminpu=0.92 daily="RES2_25_DU"  
New "Load.BT_299389553_1_M2" bus1="NODE#493621771.1.2.3" phases=3 conn=Delta model=3 kv=0.220000000 kw = 0.0 pf=0.92 status=variable vmaxpu=1.5 vminpu=0.92 daily="RES2_25_DU" 









New "Load.BT_300507392_1_M1" bus1="NODE#497660930.1.2" phases=1 conn=Delta model=2 kv=0.240000000 kw = 0.0 pf=0.92 status=variable vmaxpu=1.5 vminpu=0.92 daily="RES2_10_DU"  
New "Load.BT_300507392_1_M2" bus1="NODE#497660930.1.2" phases=1 conn=Delta model=3 kv=0.240000000 kw = 0.0 pf=0.92 status=variable vmaxpu=1.5 vminpu=0.92 daily="RES2_10_DU" 




New "Load.BT_300143667_1_M1" bus1="NODE#496477793.1" phases=1 conn=Wye model=2 kv=0.220000000 kw = 0.0384835 pf=0.92 status=variable vmaxpu=1.5 vminpu=0.92 daily="RES1_19_DU"  
New "Load.BT_300143667_1_M2" bus1="NODE#496477793.1" phases=1 conn=Wye model=3 kv=0.220000000 kw = 0.0384835 pf=0.92 status=variable vmaxpu=1.5 vminpu=0.92 daily="RES1_19_DU" 
New "Load.BT_295140878_M1" bus1="NODE#482765332.2" phases=1 conn=Wye model=2 kv=0.220000000 kw = 0.05477 pf=0.92 status=variable vmaxpu=1.5 vminpu=0.92 daily="COM1_11_DU"  
New "Load.BT_295140878_M2" bus1="NODE#482765332.2" phases=1 conn=Wye model=3 kv=0.220000000 kw = 0.05477 pf=0.92 status=variable vmaxpu=1.5 vminpu=0.92 daily="COM1_11_DU" 





New "Load.BT_295226172_M1" bus1="NODE#482938464.1" phases=1 conn=Wye model=2 kv=0.220000000 kw = 0.0 pf=0.92 status=variable vmaxpu=1.5 vminpu=0.92 daily="RES2_10_DU"  
New "Load.BT_295226172_M2" bus1="NODE#482938464.1" phases=1 conn=Wye model=3 kv=0.220000000 kw = 0.0 pf=0.92 status=variable vmaxpu=1.5 vminpu=0.92 daily="RES2_10_DU" 







New "Load.BT_295228751_1_M1" bus1="NODE#483054415.3" phases=1 conn=Wye model=2 kv=0.220000000 kw = 0.0 pf=0.92 status=variable vmaxpu=1.5 vminpu=0.92 daily="RES1_11_DU"  
New "Load.BT_295228751_1_M2" bus1="NODE#483054415.3" phases=1 conn=Wye model=3 kv=0.220000000 kw = 0.0 pf=0.92 status=variable vmaxpu=1.5 vminpu=0.92 daily="RES1_11_DU" 

New "Load.BT_324073151_5_M1" bus1="NODE#512390249.1.2.3" phases=3 conn=Delta model=2 kv=0.220000000 kw = 0.0 pf=0.92 status=variable vmaxpu=1.5 vminpu=0.92 daily="COM1_14_DU"  
New "Load.BT_324073151_5_M2" bus1="NODE#512390249.1.2.3" phases=3 conn=Delta model=3 kv=0.220000000 kw = 0.0 pf=0.92 status=variable vmaxpu=1.5 vminpu=0.92 daily="COM1_14_DU" 


New "Load.BT_295226561_1_M1" bus1="NODE#482940409.1" phases=1 conn=Wye model=2 kv=0.220000000 kw = 0.0 pf=0.92 status=variable vmaxpu=1.5 vminpu=0.92 daily="RES1_2_DU"  
New "Load.BT_295226561_1_M2" bus1="NODE#482940409.1" phases=1 conn=Wye model=3 kv=0.220000000 kw = 0.0 pf=0.92 status=variable vmaxpu=1.5 vminpu=0.92 daily="RES1_2_DU" 
New "Load.BT_295227837_M1" bus1="NODE#483015493.3" phases=1 conn=Wye model=2 kv=0.220000000 kw = 0.0 pf=0.92 status=variable vmaxpu=1.5 vminpu=0.92 daily="RES2_28_DU"  
New "Load.BT_295227837_M2" bus1="NODE#483015493.3" phases=1 conn=Wye model=3 kv=0.220000000 kw = 0.0 pf=0.92 status=variable vmaxpu=1.5 vminpu=0.92 daily="RES2_28_DU" 




New "Load.BT_295227963_1_M1" bus1="NODE#483016123.1" phases=1 conn=Wye model=2 kv=0.220000000 kw = 0.082652 pf=0.92 status=variable vmaxpu=1.5 vminpu=0.92 daily="RES1_6_DU"  
New "Load.BT_295227963_1_M2" bus1="NODE#483016123.1" phases=1 conn=Wye model=3 kv=0.220000000 kw = 0.082652 pf=0.92 status=variable vmaxpu=1.5 vminpu=0.92 daily="RES1_6_DU" 




New "Load.BT_295228140_M1" bus1="NODE#483017008.2" phases=1 conn=Wye model=2 kv=0.120000000 kw = 0.082652 pf=0.92 status=variable vmaxpu=1.5 vminpu=0.92 daily="RES1_6_DU"  
New "Load.BT_295228140_M2" bus1="NODE#483017008.2" phases=1 conn=Wye model=3 kv=0.120000000 kw = 0.082652 pf=0.92 status=variable vmaxpu=1.5 vminpu=0.92 daily="RES1_6_DU" 












New "Load.BT_299955895_M1" bus1="NODE#495865257.1" phases=1 conn=Wye model=2 kv=0.220000000 kw = 0.1141005 pf=0.92 status=variable vmaxpu=1.5 vminpu=0.92 daily="COM1_21_DU"  
New "Load.BT_299955895_M2" bus1="NODE#495865257.1" phases=1 conn=Wye model=3 kv=0.220000000 kw = 0.1141005 pf=0.92 status=variable vmaxpu=1.5 vminpu=0.92 daily="COM1_21_DU" 

New "Load.BT_295226893_1_M1" bus1="NODE#482976421.1.2.3" phases=3 conn=Delta model=2 kv=0.220000000 kw = 0.0400135 pf=0.92 status=variable vmaxpu=1.5 vminpu=0.92 daily="RES1_21_DU"  
New "Load.BT_295226893_1_M2" bus1="NODE#482976421.1.2.3" phases=3 conn=Delta model=3 kv=0.220000000 kw = 0.0400135 pf=0.92 status=variable vmaxpu=1.5 vminpu=0.92 daily="RES1_21_DU" 


New "Load.BT_324073151_7_M1" bus1="NODE#512390249.1.2.3" phases=3 conn=Delta model=2 kv=0.220000000 kw = 0.05477 pf=0.92 status=variable vmaxpu=1.5 vminpu=0.92 daily="COM1_11_DU"  
New "Load.BT_324073151_7_M2" bus1="NODE#512390249.1.2.3" phases=3 conn=Delta model=3 kv=0.220000000 kw = 0.05477 pf=0.92 status=variable vmaxpu=1.5 vminpu=0.92 daily="COM1_11_DU" 
New "Load.BT_295227889_1_M1" bus1="NODE#483015753.1.2" phases=1 conn=Delta model=2 kv=0.240000000 kw = 0.0 pf=0.92 status=variable vmaxpu=1.5 vminpu=0.92 daily="RES2_15_DU"  
New "Load.BT_295227889_1_M2" bus1="NODE#483015753.1.2" phases=1 conn=Delta model=3 kv=0.240000000 kw = 0.0 pf=0.92 status=variable vmaxpu=1.5 vminpu=0.92 daily="RES2_15_DU" 








New "Load.BT_295226981_M1" bus1="NODE#482976861.3" phases=1 conn=Wye model=2 kv=0.220000000 kw = 0.0 pf=0.92 status=variable vmaxpu=1.5 vminpu=0.92 daily="RES1_10_DU"  
New "Load.BT_295226981_M2" bus1="NODE#482976861.3" phases=1 conn=Wye model=3 kv=0.220000000 kw = 0.0 pf=0.92 status=variable vmaxpu=1.5 vminpu=0.92 daily="RES1_10_DU" 




New "Load.BT_295226645_1_M1" bus1="NODE#482940829.2" phases=1 conn=Wye model=2 kv=0.220000000 kw = 0.0 pf=0.92 status=variable vmaxpu=1.5 vminpu=0.92 daily="RES3_15_DU"  
New "Load.BT_295226645_1_M2" bus1="NODE#482940829.2" phases=1 conn=Wye model=3 kv=0.220000000 kw = 0.0 pf=0.92 status=variable vmaxpu=1.5 vminpu=0.92 daily="RES3_15_DU" 

New "Load.BT_ _10_M1" bus1="NODE#497192104.1.2" phases=1 conn=Delta model=2 kv=0.220000000 kw = 1.154687 pf=0.92 status=variable vmaxpu=1.5 vminpu=0.92 daily="RES6_7_DU"  
New "Load.BT_ _10_M2" bus1="NODE#497192104.1.2" phases=1 conn=Delta model=3 kv=0.220000000 kw = 1.154687 pf=0.92 status=variable vmaxpu=1.5 vminpu=0.92 daily="RES6_7_DU" 








New "Load.BT_295228136_1_M1" bus1="NODE#483016988.1.2" phases=1 conn=Delta model=2 kv=0.240000000 kw = 0.0 pf=0.92 status=variable vmaxpu=1.5 vminpu=0.92 daily="RES3_8_DU"  
New "Load.BT_295228136_1_M2" bus1="NODE#483016988.1.2" phases=1 conn=Delta model=3 kv=0.240000000 kw = 0.0 pf=0.92 status=variable vmaxpu=1.5 vminpu=0.92 daily="RES3_8_DU" 

New "Load.BT_299764723_2_M1" bus1="NODE#494724725.1.2.3" phases=3 conn=Delta model=2 kv=0.220000000 kw = 0.113832 pf=0.92 status=variable vmaxpu=1.5 vminpu=0.92 daily="RES1_8_DU"  
New "Load.BT_299764723_2_M2" bus1="NODE#494724725.1.2.3" phases=3 conn=Delta model=3 kv=0.220000000 kw = 0.113832 pf=0.92 status=variable vmaxpu=1.5 vminpu=0.92 daily="RES1_8_DU" 

New "Load.BT_295227743_M1" bus1="NODE#483015023.1" phases=1 conn=Wye model=2 kv=0.120000000 kw = 0.0 pf=0.92 status=variable vmaxpu=1.5 vminpu=0.92 daily="RES2_6_DU"  
New "Load.BT_295227743_M2" bus1="NODE#483015023.1" phases=1 conn=Wye model=3 kv=0.120000000 kw = 0.0 pf=0.92 status=variable vmaxpu=1.5 vminpu=0.92 daily="RES2_6_DU" 
New "Load.BT_1319305920_1_M1" bus1="NODE#1616510999.1.2.3" phases=3 conn=Delta model=2 kv=0.220000000 kw = 0.0400135 pf=0.92 status=variable vmaxpu=1.5 vminpu=0.92 daily="RES1_21_DU"  
New "Load.BT_1319305920_1_M2" bus1="NODE#1616510999.1.2.3" phases=3 conn=Delta model=3 kv=0.220000000 kw = 0.0400135 pf=0.92 status=variable vmaxpu=1.5 vminpu=0.92 daily="RES1_21_DU" 



New "Load.BT_2081619806_2_M1" bus1="NODE#2394072904.1.2.3.4" phases=3 conn=Delta model=2 kv=0.220000000 kw = 0.0400135 pf=0.92 status=variable vmaxpu=1.5 vminpu=0.92 daily="RES1_21_DU"  
New "Load.BT_2081619806_2_M2" bus1="NODE#2394072904.1.2.3.4" phases=3 conn=Delta model=3 kv=0.220000000 kw = 0.0400135 pf=0.92 status=variable vmaxpu=1.5 vminpu=0.92 daily="RES1_21_DU" 

New "Load.BT_295227713_M1" bus1="NODE#482980521.2" phases=1 conn=Wye model=2 kv=0.120000000 kw = 0.0 pf=0.92 status=variable vmaxpu=1.5 vminpu=0.92 daily="RES2_4_DU"  
New "Load.BT_295227713_M2" bus1="NODE#482980521.2" phases=1 conn=Wye model=3 kv=0.120000000 kw = 0.0 pf=0.92 status=variable vmaxpu=1.5 vminpu=0.92 daily="RES2_4_DU" 



New "Load.BT_295226322_M1" bus1="NODE#482939214.1" phases=1 conn=Wye model=2 kv=0.120000000 kw = 0.0 pf=0.92 status=variable vmaxpu=1.5 vminpu=0.92 daily="COM1_4_DU"  
New "Load.BT_295226322_M2" bus1="NODE#482939214.1" phases=1 conn=Wye model=3 kv=0.120000000 kw = 0.0 pf=0.92 status=variable vmaxpu=1.5 vminpu=0.92 daily="COM1_4_DU" 

New "Load.BT_1352206425_M1" bus1="NODE#1646341147.1.2.4" phases=1 conn=Delta model=2 kv=0.220000000 kw = 0.0 pf=0.92 status=variable vmaxpu=1.5 vminpu=0.92 daily="COM1_5_DU"  
New "Load.BT_1352206425_M2" bus1="NODE#1646341147.1.2.4" phases=1 conn=Delta model=3 kv=0.220000000 kw = 0.0 pf=0.92 status=variable vmaxpu=1.5 vminpu=0.92 daily="COM1_5_DU" 






















New "Load.BT_295142007_6_M1" bus1="NODE#482826805.2" phases=1 conn=Wye model=2 kv=0.220000000 kw = 0.040732 pf=0.92 status=variable vmaxpu=1.5 vminpu=0.92 daily="RES1_18_DU"  
New "Load.BT_295142007_6_M2" bus1="NODE#482826805.2" phases=1 conn=Wye model=3 kv=0.220000000 kw = 0.040732 pf=0.92 status=variable vmaxpu=1.5 vminpu=0.92 daily="RES1_18_DU" 







New "Load.BT_300143123_1_M1" bus1="NODE#496372013.1" phases=1 conn=Wye model=2 kv=0.220000000 kw = 0.113832 pf=0.92 status=variable vmaxpu=1.5 vminpu=0.92 daily="RES1_8_DU"  
New "Load.BT_300143123_1_M2" bus1="NODE#496372013.1" phases=1 conn=Wye model=3 kv=0.220000000 kw = 0.113832 pf=0.92 status=variable vmaxpu=1.5 vminpu=0.92 daily="RES1_8_DU" 



New "Load.BT_ _11_M1" bus1="NODE#512386730.1.2" phases=1 conn=Delta model=2 kv=0.220000000 kw = 0.23296 pf=0.92 status=variable vmaxpu=1.5 vminpu=0.92 daily="RES2_19_DU"  
New "Load.BT_ _11_M2" bus1="NODE#512386730.1.2" phases=1 conn=Delta model=3 kv=0.220000000 kw = 0.23296 pf=0.92 status=variable vmaxpu=1.5 vminpu=0.92 daily="RES2_19_DU" 








New "Load.BT_295143226_M1" bus1="NODE#482867254.2.3" phases=1 conn=Delta model=2 kv=0.220000000 kw = 0.0 pf=0.92 status=variable vmaxpu=1.5 vminpu=0.92 daily="RES2_16_DU"  
New "Load.BT_295143226_M2" bus1="NODE#482867254.2.3" phases=1 conn=Delta model=3 kv=0.220000000 kw = 0.0 pf=0.92 status=variable vmaxpu=1.5 vminpu=0.92 daily="RES2_16_DU" 

New "Load.BT_295228403_M1" bus1="NODE#483018323.1" phases=1 conn=Wye model=2 kv=0.220000000 kw = 0.0384835 pf=0.92 status=variable vmaxpu=1.5 vminpu=0.92 daily="RES1_19_DU"  
New "Load.BT_295228403_M2" bus1="NODE#483018323.1" phases=1 conn=Wye model=3 kv=0.220000000 kw = 0.0384835 pf=0.92 status=variable vmaxpu=1.5 vminpu=0.92 daily="RES1_19_DU" 







New "Load.BT_295227700_1_M1" bus1="NODE#482980456.1.2" phases=1 conn=Delta model=2 kv=0.240000000 kw = 0.183186 pf=0.92 status=variable vmaxpu=1.5 vminpu=0.92 daily="RES1_2_DU"  
New "Load.BT_295227700_1_M2" bus1="NODE#482980456.1.2" phases=1 conn=Delta model=3 kv=0.240000000 kw = 0.183186 pf=0.92 status=variable vmaxpu=1.5 vminpu=0.92 daily="RES1_2_DU" 



New "Load.BT_295228039_1_M1" bus1="NODE#483016503.1.2.3" phases=3 conn=Delta model=2 kv=0.220000000 kw = 0.0880425 pf=0.92 status=variable vmaxpu=1.5 vminpu=0.92 daily="RES1_3_DU"  
New "Load.BT_295228039_1_M2" bus1="NODE#483016503.1.2.3" phases=3 conn=Delta model=3 kv=0.220000000 kw = 0.0880425 pf=0.92 status=variable vmaxpu=1.5 vminpu=0.92 daily="RES1_3_DU" 




New "Load.BT_299955722_1_M1" bus1="NODE#495864392.1.2" phases=1 conn=Delta model=2 kv=0.240000000 kw = 0.0 pf=0.92 status=variable vmaxpu=1.5 vminpu=0.92 daily="RES1_14_DU"  
New "Load.BT_299955722_1_M2" bus1="NODE#495864392.1.2" phases=1 conn=Delta model=3 kv=0.240000000 kw = 0.0 pf=0.92 status=variable vmaxpu=1.5 vminpu=0.92 daily="RES1_14_DU" 

New "Load.BT_324073664_M1" bus1="NODE#512392818.2.3" phases=1 conn=Delta model=2 kv=0.220000000 kw = 0.0 pf=0.92 status=variable vmaxpu=1.5 vminpu=0.92 daily="RES3_2_DU"  
New "Load.BT_324073664_M2" bus1="NODE#512392818.2.3" phases=1 conn=Delta model=3 kv=0.220000000 kw = 0.0 pf=0.92 status=variable vmaxpu=1.5 vminpu=0.92 daily="RES3_2_DU" 




New "Load.BT_295142382_M1" bus1="NODE#482828682.3" phases=1 conn=Wye model=2 kv=0.220000000 kw = 0.0 pf=0.92 status=variable vmaxpu=1.5 vminpu=0.92 daily="RES2_6_DU"  
New "Load.BT_295142382_M2" bus1="NODE#482828682.3" phases=1 conn=Wye model=3 kv=0.220000000 kw = 0.0 pf=0.92 status=variable vmaxpu=1.5 vminpu=0.92 daily="RES2_6_DU" 



New "Load.BT_299956322_1_M1" bus1="NODE#496026272.1" phases=1 conn=Wye model=2 kv=0.220000000 kw = 0.1391495 pf=0.92 status=variable vmaxpu=1.5 vminpu=0.92 daily="RES1_5_DU"  
New "Load.BT_299956322_1_M2" bus1="NODE#496026272.1" phases=1 conn=Wye model=3 kv=0.220000000 kw = 0.1391495 pf=0.92 status=variable vmaxpu=1.5 vminpu=0.92 daily="RES1_5_DU" 




New "Load.BT_324074412_M1" bus1="NODE#512409452.1.2.3" phases=3 conn=Delta model=2 kv=0.220000000 kw = 0.0 pf=0.92 status=variable vmaxpu=1.5 vminpu=0.92 daily="RES2_28_DU"  
New "Load.BT_324074412_M2" bus1="NODE#512409452.1.2.3" phases=3 conn=Delta model=3 kv=0.220000000 kw = 0.0 pf=0.92 status=variable vmaxpu=1.5 vminpu=0.92 daily="RES2_28_DU" 







New "Load.BT_299766012_1_M1" bus1="NODE#494890048.1.2.3" phases=3 conn=Delta model=2 kv=0.220000000 kw = 0.1391495 pf=0.92 status=variable vmaxpu=1.5 vminpu=0.92 daily="RES1_5_DU"  
New "Load.BT_299766012_1_M2" bus1="NODE#494890048.1.2.3" phases=3 conn=Delta model=3 kv=0.220000000 kw = 0.1391495 pf=0.92 status=variable vmaxpu=1.5 vminpu=0.92 daily="RES1_5_DU" 





New "Load.BT_299956343_1_M1" bus1="NODE#496026379.1.2" phases=1 conn=Delta model=2 kv=0.220000000 kw = 0.113832 pf=0.92 status=variable vmaxpu=1.5 vminpu=0.92 daily="RES1_8_DU"  
New "Load.BT_299956343_1_M2" bus1="NODE#496026379.1.2" phases=1 conn=Delta model=3 kv=0.220000000 kw = 0.113832 pf=0.92 status=variable vmaxpu=1.5 vminpu=0.92 daily="RES1_8_DU" 






New "Load.BT_295228131_M1" bus1="NODE#483016963.2" phases=1 conn=Wye model=2 kv=0.120000000 kw = 0.17888 pf=0.92 status=variable vmaxpu=1.5 vminpu=0.92 daily="RES2_19_DU"  
New "Load.BT_295228131_M2" bus1="NODE#483016963.2" phases=1 conn=Wye model=3 kv=0.120000000 kw = 0.17888 pf=0.92 status=variable vmaxpu=1.5 vminpu=0.92 daily="RES2_19_DU" 















New "Load.BT_300144496_M1" bus1="NODE#496550650.1.2" phases=1 conn=Delta model=2 kv=0.220000000 kw = 0.0 pf=0.92 status=variable vmaxpu=1.5 vminpu=0.92 daily="COM2_1_DU"  
New "Load.BT_300144496_M2" bus1="NODE#496550650.1.2" phases=1 conn=Delta model=3 kv=0.220000000 kw = 0.0 pf=0.92 status=variable vmaxpu=1.5 vminpu=0.92 daily="COM2_1_DU" 





New "Load.BT_324074660_1_M1" bus1="NODE#512410694.1.2.3" phases=3 conn=Delta model=2 kv=0.220000000 kw = 0.071894 pf=0.92 status=variable vmaxpu=1.5 vminpu=0.92 daily="RES4_19_DU"  
New "Load.BT_324074660_1_M2" bus1="NODE#512410694.1.2.3" phases=3 conn=Delta model=3 kv=0.220000000 kw = 0.071894 pf=0.92 status=variable vmaxpu=1.5 vminpu=0.92 daily="RES4_19_DU" 






New "Load.BT_295228042_1_M1" bus1="NODE#483016518.2.3" phases=1 conn=Delta model=2 kv=0.220000000 kw = 0.0 pf=0.92 status=variable vmaxpu=1.5 vminpu=0.92 daily="RES1_20_DU"  
New "Load.BT_295228042_1_M2" bus1="NODE#483016518.2.3" phases=1 conn=Delta model=3 kv=0.220000000 kw = 0.0 pf=0.92 status=variable vmaxpu=1.5 vminpu=0.92 daily="RES1_20_DU" 









New "Load.BT_295142016_4_M1" bus1="NODE#482826850.1.2.3" phases=3 conn=Delta model=2 kv=0.220000000 kw = 0.034644 pf=0.92 status=variable vmaxpu=1.5 vminpu=0.92 daily="RES1_23_DU"  
New "Load.BT_295142016_4_M2" bus1="NODE#482826850.1.2.3" phases=3 conn=Delta model=3 kv=0.220000000 kw = 0.034644 pf=0.92 status=variable vmaxpu=1.5 vminpu=0.92 daily="RES1_23_DU" 






New "Load.BT_295227905_1_M1" bus1="NODE#483015833.1.2" phases=1 conn=Delta model=2 kv=0.240000000 kw = 0.0 pf=0.92 status=variable vmaxpu=1.5 vminpu=0.92 daily="RES1_1_DU"  
New "Load.BT_295227905_1_M2" bus1="NODE#483015833.1.2" phases=1 conn=Delta model=3 kv=0.240000000 kw = 0.0 pf=0.92 status=variable vmaxpu=1.5 vminpu=0.92 daily="RES1_1_DU" 














New "Load.BT_295228753_M1" bus1="NODE#483054425.1.2" phases=1 conn=Delta model=2 kv=0.220000000 kw = 0.038626 pf=0.92 status=variable vmaxpu=1.5 vminpu=0.92 daily="RES1_25_DU"  
New "Load.BT_295228753_M2" bus1="NODE#483054425.1.2" phases=1 conn=Delta model=3 kv=0.220000000 kw = 0.038626 pf=0.92 status=variable vmaxpu=1.5 vminpu=0.92 daily="RES1_25_DU" 










New "Load.BT_324073371_1_M1" bus1="NODE#512391351.1.2.3" phases=3 conn=Delta model=2 kv=0.220000000 kw = 0.113832 pf=0.92 status=variable vmaxpu=1.5 vminpu=0.92 daily="RES1_8_DU"  
New "Load.BT_324073371_1_M2" bus1="NODE#512391351.1.2.3" phases=3 conn=Delta model=3 kv=0.220000000 kw = 0.113832 pf=0.92 status=variable vmaxpu=1.5 vminpu=0.92 daily="RES1_8_DU" 



New "Load.BT_295431771_M1" bus1="NODE#483489827.2" phases=1 conn=Wye model=2 kv=0.220000000 kw = 0.0 pf=0.92 status=variable vmaxpu=1.5 vminpu=0.92 daily="RES2_1_DU"  
New "Load.BT_295431771_M2" bus1="NODE#483489827.2" phases=1 conn=Wye model=3 kv=0.220000000 kw = 0.0 pf=0.92 status=variable vmaxpu=1.5 vminpu=0.92 daily="RES2_1_DU" 














New "Load.BT_324075534_2_M1" bus1="NODE#512432266.1.2.3" phases=3 conn=Delta model=2 kv=0.220000000 kw = 0.034644 pf=0.92 status=variable vmaxpu=1.5 vminpu=0.92 daily="RES1_23_DU"  
New "Load.BT_324075534_2_M2" bus1="NODE#512432266.1.2.3" phases=3 conn=Delta model=3 kv=0.220000000 kw = 0.034644 pf=0.92 status=variable vmaxpu=1.5 vminpu=0.92 daily="RES1_23_DU" 

New "Load.BT_295227835_1_M1" bus1="NODE#483015483.3" phases=1 conn=Wye model=2 kv=0.220000000 kw = 0.0 pf=0.92 status=variable vmaxpu=1.5 vminpu=0.92 daily="RES3_6_DU"  
New "Load.BT_295227835_1_M2" bus1="NODE#483015483.3" phases=1 conn=Wye model=3 kv=0.220000000 kw = 0.0 pf=0.92 status=variable vmaxpu=1.5 vminpu=0.92 daily="RES3_6_DU" 






New "Load.BT_295227121_M1" bus1="NODE#482977561.2" phases=1 conn=Wye model=2 kv=0.220000000 kw = 0.0 pf=0.92 status=variable vmaxpu=1.5 vminpu=0.92 daily="RES2_13_DU"  
New "Load.BT_295227121_M2" bus1="NODE#482977561.2" phases=1 conn=Wye model=3 kv=0.220000000 kw = 0.0 pf=0.92 status=variable vmaxpu=1.5 vminpu=0.92 daily="RES2_13_DU" 



New "Load.BT_299575010_1_M1" bus1="NODE#494596310.2.3" phases=1 conn=Delta model=2 kv=0.220000000 kw = 0.040732 pf=0.92 status=variable vmaxpu=1.5 vminpu=0.92 daily="RES1_18_DU"  
New "Load.BT_299575010_1_M2" bus1="NODE#494596310.2.3" phases=1 conn=Delta model=3 kv=0.220000000 kw = 0.040732 pf=0.92 status=variable vmaxpu=1.5 vminpu=0.92 daily="RES1_18_DU" 
New "Load.BT_300902728_1_M1" bus1="NODE#499422980.1.2.3" phases=3 conn=Delta model=2 kv=0.220000000 kw = 0.038626 pf=0.92 status=variable vmaxpu=1.5 vminpu=0.92 daily="RES1_25_DU"  
New "Load.BT_300902728_1_M2" bus1="NODE#499422980.1.2.3" phases=3 conn=Delta model=3 kv=0.220000000 kw = 0.038626 pf=0.92 status=variable vmaxpu=1.5 vminpu=0.92 daily="RES1_25_DU" 





New "Load.BT_324073930_2_M1" bus1="NODE#512394156.2.3" phases=1 conn=Delta model=2 kv=0.220000000 kw = 0.06712 pf=0.92 status=variable vmaxpu=1.5 vminpu=0.92 daily="RES1_7_DU"  
New "Load.BT_324073930_2_M2" bus1="NODE#512394156.2.3" phases=1 conn=Delta model=3 kv=0.220000000 kw = 0.06712 pf=0.92 status=variable vmaxpu=1.5 vminpu=0.92 daily="RES1_7_DU" 

New "Load.BT_295226886_M1" bus1="NODE#482976386.1.2.3" phases=3 conn=Delta model=2 kv=0.220000000 kw = 0.0 pf=0.92 status=variable vmaxpu=1.5 vminpu=0.92 daily="COM1_14_DU"  
New "Load.BT_295226886_M2" bus1="NODE#482976386.1.2.3" phases=3 conn=Delta model=3 kv=0.220000000 kw = 0.0 pf=0.92 status=variable vmaxpu=1.5 vminpu=0.92 daily="COM1_14_DU" 






New "Load.BT_382742076_1_M1" bus1="NODE#515918625.1.2.3" phases=3 conn=Delta model=2 kv=0.220000000 kw = 0.079657 pf=0.92 status=variable vmaxpu=1.5 vminpu=0.92 daily="RES2_4_DU"  
New "Load.BT_382742076_1_M2" bus1="NODE#515918625.1.2.3" phases=3 conn=Delta model=3 kv=0.220000000 kw = 0.079657 pf=0.92 status=variable vmaxpu=1.5 vminpu=0.92 daily="RES2_4_DU" 
New "Load.BT_295142096_1_M1" bus1="NODE#482827250.1.2.3" phases=3 conn=Delta model=2 kv=0.220000000 kw = 0.0839635 pf=0.92 status=variable vmaxpu=1.5 vminpu=0.92 daily="RES1_9_DU"  
New "Load.BT_295142096_1_M2" bus1="NODE#482827250.1.2.3" phases=3 conn=Delta model=3 kv=0.220000000 kw = 0.0839635 pf=0.92 status=variable vmaxpu=1.5 vminpu=0.92 daily="RES1_9_DU" 





New "Load.BT_295226515_1_M1" bus1="NODE#482940179.1.2" phases=1 conn=Delta model=2 kv=0.240000000 kw = 0.0 pf=0.92 status=variable vmaxpu=1.5 vminpu=0.92 daily="RES2_18_DU"  
New "Load.BT_295226515_1_M2" bus1="NODE#482940179.1.2" phases=1 conn=Delta model=3 kv=0.240000000 kw = 0.0 pf=0.92 status=variable vmaxpu=1.5 vminpu=0.92 daily="RES2_18_DU" 

New "Load.BT_ _15_M1" bus1="NODE#420686311.1.2.3.4" phases=3 conn=Delta model=2 kv=0.220000000 kw = 1.952936 pf=0.92 status=variable vmaxpu=1.5 vminpu=0.92 daily="RES1_4_DU"  
New "Load.BT_ _15_M2" bus1="NODE#420686311.1.2.3.4" phases=3 conn=Delta model=3 kv=0.220000000 kw = 1.952936 pf=0.92 status=variable vmaxpu=1.5 vminpu=0.92 daily="RES1_4_DU" 


New "Load.BT_324073151_11_M1" bus1="NODE#512390249.1.2.3" phases=3 conn=Delta model=2 kv=0.220000000 kw = 0.0 pf=0.92 status=variable vmaxpu=1.5 vminpu=0.92 daily="RES1_14_DU"  
New "Load.BT_324073151_11_M2" bus1="NODE#512390249.1.2.3" phases=3 conn=Delta model=3 kv=0.220000000 kw = 0.0 pf=0.92 status=variable vmaxpu=1.5 vminpu=0.92 daily="RES1_14_DU" 
New "Load.BT_ _16_M1" bus1="NODE#495064683.2.3" phases=1 conn=Delta model=2 kv=0.220000000 kw = 0.2681205 pf=0.92 status=variable vmaxpu=1.5 vminpu=0.92 daily="RES2_21_DU"  
New "Load.BT_ _16_M2" bus1="NODE#495064683.2.3" phases=1 conn=Delta model=3 kv=0.220000000 kw = 0.2681205 pf=0.92 status=variable vmaxpu=1.5 vminpu=0.92 daily="RES2_21_DU" 



New "Load.BT_300902995_3_M1" bus1="NODE#499424325.1.2" phases=1 conn=Delta model=2 kv=0.220000000 kw = 0.0 pf=0.92 status=variable vmaxpu=1.5 vminpu=0.92 daily="RES2_2_DU"  
New "Load.BT_300902995_3_M2" bus1="NODE#499424325.1.2" phases=1 conn=Delta model=3 kv=0.220000000 kw = 0.0 pf=0.92 status=variable vmaxpu=1.5 vminpu=0.92 daily="RES2_2_DU" 












New "Load.BT_324074285_2_M1" bus1="NODE#512408817.1.2" phases=1 conn=Delta model=2 kv=0.240000000 kw = 0.0880425 pf=0.92 status=variable vmaxpu=1.5 vminpu=0.92 daily="RES1_3_DU"  
New "Load.BT_324074285_2_M2" bus1="NODE#512408817.1.2" phases=1 conn=Delta model=3 kv=0.240000000 kw = 0.0880425 pf=0.92 status=variable vmaxpu=1.5 vminpu=0.92 daily="RES1_3_DU" 
New "Load.BT_ _17_M1" bus1="NODE#512386735.1.2" phases=1 conn=Delta model=2 kv=0.220000000 kw = 0.432583 pf=0.92 status=variable vmaxpu=1.5 vminpu=0.92 daily="RES4_6_DU"  
New "Load.BT_ _17_M2" bus1="NODE#512386735.1.2" phases=1 conn=Delta model=3 kv=0.220000000 kw = 0.432583 pf=0.92 status=variable vmaxpu=1.5 vminpu=0.92 daily="RES4_6_DU" 
New "Load.BT_300143890_1_M1" bus1="NODE#496478910.2" phases=1 conn=Wye model=2 kv=0.120000000 kw = 0.0 pf=0.92 status=variable vmaxpu=1.5 vminpu=0.92 daily="RES1_1_DU"  
New "Load.BT_300143890_1_M2" bus1="NODE#496478910.2" phases=1 conn=Wye model=3 kv=0.120000000 kw = 0.0 pf=0.92 status=variable vmaxpu=1.5 vminpu=0.92 daily="RES1_1_DU" 

New "Load.BT_299955722_2_M1" bus1="NODE#495864392.1.2" phases=1 conn=Delta model=2 kv=0.240000000 kw = 0.0 pf=0.92 status=variable vmaxpu=1.5 vminpu=0.92 daily="RES2_5_DU"  
New "Load.BT_299955722_2_M2" bus1="NODE#495864392.1.2" phases=1 conn=Delta model=3 kv=0.240000000 kw = 0.0 pf=0.92 status=variable vmaxpu=1.5 vminpu=0.92 daily="RES2_5_DU" 







New "Load.BT_295143025_2_M1" bus1="NODE#482866249.1.2" phases=1 conn=Delta model=2 kv=0.220000000 kw = 0.040732 pf=0.92 status=variable vmaxpu=1.5 vminpu=0.92 daily="RES1_18_DU"  
New "Load.BT_295143025_2_M2" bus1="NODE#482866249.1.2" phases=1 conn=Delta model=3 kv=0.220000000 kw = 0.040732 pf=0.92 status=variable vmaxpu=1.5 vminpu=0.92 daily="RES1_18_DU" 

New "Load.BT_295228579_2_M1" bus1="NODE#483053555.1.2.3" phases=3 conn=Delta model=2 kv=0.220000000 kw = 0.132533 pf=0.92 status=variable vmaxpu=1.5 vminpu=0.92 daily="RES1_11_DU"  
New "Load.BT_295228579_2_M2" bus1="NODE#483053555.1.2.3" phases=3 conn=Delta model=3 kv=0.220000000 kw = 0.132533 pf=0.92 status=variable vmaxpu=1.5 vminpu=0.92 daily="RES1_11_DU" 

New "Load.BT_299956341_1_M1" bus1="NODE#496026369.1.2" phases=1 conn=Delta model=2 kv=0.220000000 kw = 0.0 pf=0.92 status=variable vmaxpu=1.5 vminpu=0.92 daily="RES2_7_DU"  
New "Load.BT_299956341_1_M2" bus1="NODE#496026369.1.2" phases=1 conn=Delta model=3 kv=0.220000000 kw = 0.0 pf=0.92 status=variable vmaxpu=1.5 vminpu=0.92 daily="RES2_7_DU" 




New "Load.BT_295140883_1_M1" bus1="NODE#482765357.1.2" phases=1 conn=Delta model=2 kv=0.220000000 kw = 0.05477 pf=0.92 status=variable vmaxpu=1.5 vminpu=0.92 daily="COM1_11_DU"  
New "Load.BT_295140883_1_M2" bus1="NODE#482765357.1.2" phases=1 conn=Delta model=3 kv=0.220000000 kw = 0.05477 pf=0.92 status=variable vmaxpu=1.5 vminpu=0.92 daily="COM1_11_DU" 

New "Load.BT_295227911_1_M1" bus1="NODE#483015863.1.2.3" phases=3 conn=Delta model=2 kv=0.220000000 kw = 0.0 pf=0.92 status=variable vmaxpu=1.5 vminpu=0.92 daily="RES2_12_DU"  
New "Load.BT_295227911_1_M2" bus1="NODE#483015863.1.2.3" phases=3 conn=Delta model=3 kv=0.220000000 kw = 0.0 pf=0.92 status=variable vmaxpu=1.5 vminpu=0.92 daily="RES2_12_DU" 



New "Load.BT_295142355_2_M1" bus1="NODE#482828547.3" phases=1 conn=Wye model=2 kv=0.220000000 kw = 0.0 pf=0.92 status=variable vmaxpu=1.5 vminpu=0.92 daily="RES2_21_DU"  
New "Load.BT_295142355_2_M2" bus1="NODE#482828547.3" phases=1 conn=Wye model=3 kv=0.220000000 kw = 0.0 pf=0.92 status=variable vmaxpu=1.5 vminpu=0.92 daily="RES2_21_DU" 








New "Load.BT_300143472_M1" bus1="NODE#496476816.3" phases=1 conn=Wye model=2 kv=0.220000000 kw = 0.0 pf=0.92 status=variable vmaxpu=1.5 vminpu=0.92 daily="RES2_7_DU"  
New "Load.BT_300143472_M2" bus1="NODE#496476816.3" phases=1 conn=Wye model=3 kv=0.220000000 kw = 0.0 pf=0.92 status=variable vmaxpu=1.5 vminpu=0.92 daily="RES2_7_DU" 










New "Load.BT_ _18_M1" bus1="NODE#512386760.1.2" phases=1 conn=Delta model=2 kv=0.240000000 kw = 0.4530215 pf=0.92 status=variable vmaxpu=1.5 vminpu=0.92 daily="RES4_12_DU"  
New "Load.BT_ _18_M2" bus1="NODE#512386760.1.2" phases=1 conn=Delta model=3 kv=0.240000000 kw = 0.4530215 pf=0.92 status=variable vmaxpu=1.5 vminpu=0.92 daily="RES4_12_DU" 






















New "Load.BT_ _19_M1" bus1="NODE#420661481.1.2.3.4" phases=3 conn=Delta model=2 kv=0.220000000 kw = 4.3980705 pf=0.92 status=variable vmaxpu=1.5 vminpu=0.92 daily="COM1_21_DU"  
New "Load.BT_ _19_M2" bus1="NODE#420661481.1.2.3.4" phases=3 conn=Delta model=3 kv=0.220000000 kw = 4.3980705 pf=0.92 status=variable vmaxpu=1.5 vminpu=0.92 daily="COM1_21_DU" 

New "Load.BT_ _20_M1" bus1="NODE#482976506.2" phases=1 conn=Wye model=2 kv=0.220000000 kw = 0.159095 pf=0.92 status=variable vmaxpu=1.5 vminpu=0.92 daily="RES2_15_DU"  
New "Load.BT_ _20_M2" bus1="NODE#482976506.2" phases=1 conn=Wye model=3 kv=0.220000000 kw = 0.159095 pf=0.92 status=variable vmaxpu=1.5 vminpu=0.92 daily="RES2_15_DU" 

New "Load.BT_1319305920_2_M1" bus1="NODE#1616510999.1.2.3" phases=3 conn=Delta model=2 kv=0.220000000 kw = 0.0400135 pf=0.92 status=variable vmaxpu=1.5 vminpu=0.92 daily="RES1_21_DU"  
New "Load.BT_1319305920_2_M2" bus1="NODE#1616510999.1.2.3" phases=3 conn=Delta model=3 kv=0.220000000 kw = 0.0400135 pf=0.92 status=variable vmaxpu=1.5 vminpu=0.92 daily="RES1_21_DU" 


New "Load.BT_295227401_1_M1" bus1="NODE#482978961.1" phases=1 conn=Wye model=2 kv=0.120000000 kw = 0.0 pf=0.92 status=variable vmaxpu=1.5 vminpu=0.92 daily="RES2_5_DU"  
New "Load.BT_295227401_1_M2" bus1="NODE#482978961.1" phases=1 conn=Wye model=3 kv=0.120000000 kw = 0.0 pf=0.92 status=variable vmaxpu=1.5 vminpu=0.92 daily="RES2_5_DU" 















New "Load.BT_324074797_3_M1" bus1="NODE#512411379.1.2.3" phases=3 conn=Delta model=2 kv=0.220000000 kw = 0.0680495 pf=0.92 status=variable vmaxpu=1.5 vminpu=0.92 daily="COM1_23_DU"  
New "Load.BT_324074797_3_M2" bus1="NODE#512411379.1.2.3" phases=3 conn=Delta model=3 kv=0.220000000 kw = 0.0680495 pf=0.92 status=variable vmaxpu=1.5 vminpu=0.92 daily="COM1_23_DU" 



New "Load.BT_295227921_1_M1" bus1="NODE#483015913.1.2.3" phases=3 conn=Delta model=2 kv=0.220000000 kw = 0.0 pf=0.92 status=variable vmaxpu=1.5 vminpu=0.92 daily="RES3_4_DU"  
New "Load.BT_295227921_1_M2" bus1="NODE#483015913.1.2.3" phases=3 conn=Delta model=3 kv=0.220000000 kw = 0.0 pf=0.92 status=variable vmaxpu=1.5 vminpu=0.92 daily="RES3_4_DU" 






New "Load.BT_299571835_1_M1" bus1="NODE#493940613.1.2.3" phases=3 conn=Delta model=2 kv=0.220000000 kw = 0.02372 pf=0.92 status=variable vmaxpu=1.5 vminpu=0.92 daily="COM2_25_DU"  
New "Load.BT_299571835_1_M2" bus1="NODE#493940613.1.2.3" phases=3 conn=Delta model=3 kv=0.220000000 kw = 0.02372 pf=0.92 status=variable vmaxpu=1.5 vminpu=0.92 daily="COM2_25_DU" 




New "Load.BT_295228183_M1" bus1="NODE#483017223.1.2" phases=1 conn=Delta model=2 kv=0.220000000 kw = 0.0 pf=0.92 status=variable vmaxpu=1.5 vminpu=0.92 daily="RES2_25_DU"  
New "Load.BT_295228183_M2" bus1="NODE#483017223.1.2" phases=1 conn=Delta model=3 kv=0.220000000 kw = 0.0 pf=0.92 status=variable vmaxpu=1.5 vminpu=0.92 daily="RES2_25_DU" 







New "Load.BT_1986954084_1_M1" bus1="NODE#2306182936.1.2.3.4" phases=3 conn=Delta model=2 kv=0.220000000 kw = 0.038626 pf=0.92 status=variable vmaxpu=1.5 vminpu=0.92 daily="RES1_25_DU"  
New "Load.BT_1986954084_1_M2" bus1="NODE#2306182936.1.2.3.4" phases=3 conn=Delta model=3 kv=0.220000000 kw = 0.038626 pf=0.92 status=variable vmaxpu=1.5 vminpu=0.92 daily="RES1_25_DU" 





New "Load.BT_295225586_M1" bus1="NODE#482896888.3" phases=1 conn=Wye model=2 kv=0.220000000 kw = 0.0 pf=0.92 status=variable vmaxpu=1.5 vminpu=0.92 daily="RES1_1_DU"  
New "Load.BT_295225586_M2" bus1="NODE#482896888.3" phases=1 conn=Wye model=3 kv=0.220000000 kw = 0.0 pf=0.92 status=variable vmaxpu=1.5 vminpu=0.92 daily="RES1_1_DU" 




New "Load.BT_295068229_M1" bus1="NODE#482599609.1" phases=1 conn=Wye model=2 kv=0.220000000 kw = 0.0 pf=0.92 status=variable vmaxpu=1.5 vminpu=0.92 daily="RES1_2_DU"  
New "Load.BT_295068229_M2" bus1="NODE#482599609.1" phases=1 conn=Wye model=3 kv=0.220000000 kw = 0.0 pf=0.92 status=variable vmaxpu=1.5 vminpu=0.92 daily="RES1_2_DU" 


New "Load.BT_295228148_1_M1" bus1="NODE#483017048.1.2" phases=1 conn=Delta model=2 kv=0.240000000 kw = 0.0 pf=0.92 status=variable vmaxpu=1.5 vminpu=0.92 daily="RES3_15_DU"  
New "Load.BT_295228148_1_M2" bus1="NODE#483017048.1.2" phases=1 conn=Delta model=3 kv=0.240000000 kw = 0.0 pf=0.92 status=variable vmaxpu=1.5 vminpu=0.92 daily="RES3_15_DU" 






New "Load.BT_295226724_M1" bus1="NODE#482941224.1.2" phases=1 conn=Delta model=2 kv=0.220000000 kw = 0.0 pf=0.92 status=variable vmaxpu=1.5 vminpu=0.92 daily="RES2_2_DU"  
New "Load.BT_295226724_M2" bus1="NODE#482941224.1.2" phases=1 conn=Delta model=3 kv=0.220000000 kw = 0.0 pf=0.92 status=variable vmaxpu=1.5 vminpu=0.92 daily="RES2_2_DU" 



New "Load.BT_295142943_2_M1" bus1="NODE#482865839.1.2.3" phases=3 conn=Delta model=2 kv=0.220000000 kw = 0.0 pf=0.92 status=variable vmaxpu=1.5 vminpu=0.92 daily="RES3_11_DU"  
New "Load.BT_295142943_2_M2" bus1="NODE#482865839.1.2.3" phases=3 conn=Delta model=3 kv=0.220000000 kw = 0.0 pf=0.92 status=variable vmaxpu=1.5 vminpu=0.92 daily="RES3_11_DU" 




New "Load.BT_300143147_M1" bus1="NODE#496372133.1.2" phases=1 conn=Delta model=2 kv=0.240000000 kw = 0.0 pf=0.92 status=variable vmaxpu=1.5 vminpu=0.92 daily="RES5_7_DU"  
New "Load.BT_300143147_M2" bus1="NODE#496372133.1.2" phases=1 conn=Delta model=3 kv=0.240000000 kw = 0.0 pf=0.92 status=variable vmaxpu=1.5 vminpu=0.92 daily="RES5_7_DU" 















New "Load.BT_295226040_1_M1" bus1="NODE#482937804.1.2.3" phases=3 conn=Delta model=2 kv=0.220000000 kw = 0.040732 pf=0.92 status=variable vmaxpu=1.5 vminpu=0.92 daily="RES1_18_DU"  
New "Load.BT_295226040_1_M2" bus1="NODE#482937804.1.2.3" phases=3 conn=Delta model=3 kv=0.220000000 kw = 0.040732 pf=0.92 status=variable vmaxpu=1.5 vminpu=0.92 daily="RES1_18_DU" 
New "Load.BT_295227944_2_M1" bus1="NODE#483016028.1.2" phases=1 conn=Delta model=2 kv=0.220000000 kw = 0.06712 pf=0.92 status=variable vmaxpu=1.5 vminpu=0.92 daily="RES1_7_DU"  
New "Load.BT_295227944_2_M2" bus1="NODE#483016028.1.2" phases=1 conn=Delta model=3 kv=0.220000000 kw = 0.06712 pf=0.92 status=variable vmaxpu=1.5 vminpu=0.92 daily="RES1_7_DU" 






New "Load.BT_295227708_1_M1" bus1="NODE#482980496.1" phases=1 conn=Wye model=2 kv=0.120000000 kw = 0.1956445 pf=0.92 status=variable vmaxpu=1.5 vminpu=0.92 daily="RES1_11_DU"  
New "Load.BT_295227708_1_M2" bus1="NODE#482980496.1" phases=1 conn=Wye model=3 kv=0.120000000 kw = 0.1956445 pf=0.92 status=variable vmaxpu=1.5 vminpu=0.92 daily="RES1_11_DU" 
New "Load.BT_300902682_2_M1" bus1="NODE#499422750.1.2" phases=1 conn=Delta model=2 kv=0.220000000 kw = 0.0 pf=0.92 status=variable vmaxpu=1.5 vminpu=0.92 daily="RES1_3_DU"  
New "Load.BT_300902682_2_M2" bus1="NODE#499422750.1.2" phases=1 conn=Delta model=3 kv=0.220000000 kw = 0.0 pf=0.92 status=variable vmaxpu=1.5 vminpu=0.92 daily="RES1_3_DU" 



New "Load.BT_295141843_M1" bus1="NODE#482825985.1.2.3" phases=3 conn=Delta model=2 kv=0.220000000 kw = 0.0767155 pf=0.92 status=variable vmaxpu=1.5 vminpu=0.92 daily="RES1_26_DU"  
New "Load.BT_295141843_M2" bus1="NODE#482825985.1.2.3" phases=3 conn=Delta model=3 kv=0.220000000 kw = 0.0767155 pf=0.92 status=variable vmaxpu=1.5 vminpu=0.92 daily="RES1_26_DU" 
New "Load.BT_300142654_2_M1" bus1="NODE#496369660.1.2.3" phases=3 conn=Delta model=2 kv=0.220000000 kw = 0.1391495 pf=0.92 status=variable vmaxpu=1.5 vminpu=0.92 daily="RES1_5_DU"  
New "Load.BT_300142654_2_M2" bus1="NODE#496369660.1.2.3" phases=3 conn=Delta model=3 kv=0.220000000 kw = 0.1391495 pf=0.92 status=variable vmaxpu=1.5 vminpu=0.92 daily="RES1_5_DU" 


New "Load.BT_295432280_1_M1" bus1="NODE#483531020.1.2" phases=1 conn=Delta model=2 kv=0.240000000 kw = 0.034644 pf=0.92 status=variable vmaxpu=1.5 vminpu=0.92 daily="RES1_23_DU"  
New "Load.BT_295432280_1_M2" bus1="NODE#483531020.1.2" phases=1 conn=Delta model=3 kv=0.240000000 kw = 0.034644 pf=0.92 status=variable vmaxpu=1.5 vminpu=0.92 daily="RES1_23_DU" 






New "Load.BT_299956343_3_M1" bus1="NODE#496026379.1.2" phases=1 conn=Delta model=2 kv=0.220000000 kw = 0.038626 pf=0.92 status=variable vmaxpu=1.5 vminpu=0.92 daily="RES1_25_DU"  
New "Load.BT_299956343_3_M2" bus1="NODE#496026379.1.2" phases=1 conn=Delta model=3 kv=0.220000000 kw = 0.038626 pf=0.92 status=variable vmaxpu=1.5 vminpu=0.92 daily="RES1_25_DU" 

New "Load.BT_295228366_1_M1" bus1="NODE#483018138.2.3" phases=1 conn=Delta model=2 kv=0.220000000 kw = 0.0 pf=0.92 status=variable vmaxpu=1.5 vminpu=0.92 daily="RES4_18_DU"  
New "Load.BT_295228366_1_M2" bus1="NODE#483018138.2.3" phases=1 conn=Delta model=3 kv=0.220000000 kw = 0.0 pf=0.92 status=variable vmaxpu=1.5 vminpu=0.92 daily="RES4_18_DU" 




New "Load.BT_295227712_2_M1" bus1="NODE#482980516.1" phases=1 conn=Wye model=2 kv=0.120000000 kw = 0.0 pf=0.92 status=variable vmaxpu=1.5 vminpu=0.92 daily="RES1_11_DU"  
New "Load.BT_295227712_2_M2" bus1="NODE#482980516.1" phases=1 conn=Wye model=3 kv=0.120000000 kw = 0.0 pf=0.92 status=variable vmaxpu=1.5 vminpu=0.92 daily="RES1_11_DU" 

New "Load.BT_295227850_M1" bus1="NODE#483015558.2" phases=1 conn=Wye model=2 kv=0.120000000 kw = 0.0 pf=0.92 status=variable vmaxpu=1.5 vminpu=0.92 daily="RES1_17_DU"  
New "Load.BT_295227850_M2" bus1="NODE#483015558.2" phases=1 conn=Wye model=3 kv=0.120000000 kw = 0.0 pf=0.92 status=variable vmaxpu=1.5 vminpu=0.92 daily="RES1_17_DU" 



New "Load.BT_299956343_4_M1" bus1="NODE#496026379.1.2" phases=1 conn=Delta model=2 kv=0.220000000 kw = 0.082652 pf=0.92 status=variable vmaxpu=1.5 vminpu=0.92 daily="RES1_6_DU"  
New "Load.BT_299956343_4_M2" bus1="NODE#496026379.1.2" phases=1 conn=Delta model=3 kv=0.220000000 kw = 0.082652 pf=0.92 status=variable vmaxpu=1.5 vminpu=0.92 daily="RES1_6_DU" 







New "Load.BT_2081619806_3_M1" bus1="NODE#2394072904.1.2.3.4" phases=3 conn=Delta model=2 kv=0.220000000 kw = 0.0595785 pf=0.92 status=variable vmaxpu=1.5 vminpu=0.92 daily="RES1_22_DU"  
New "Load.BT_2081619806_3_M2" bus1="NODE#2394072904.1.2.3.4" phases=3 conn=Delta model=3 kv=0.220000000 kw = 0.0595785 pf=0.92 status=variable vmaxpu=1.5 vminpu=0.92 daily="RES1_22_DU" 














New "Load.BT_295226694_1_M1" bus1="NODE#482941074.1.2" phases=1 conn=Delta model=2 kv=0.240000000 kw = 0.080038 pf=0.92 status=variable vmaxpu=1.5 vminpu=0.92 daily="RES1_4_DU"  
New "Load.BT_295226694_1_M2" bus1="NODE#482941074.1.2" phases=1 conn=Delta model=3 kv=0.240000000 kw = 0.080038 pf=0.92 status=variable vmaxpu=1.5 vminpu=0.92 daily="RES1_4_DU" 



New "Load.BT_299766012_3_M1" bus1="NODE#494890048.1.2.3" phases=3 conn=Delta model=2 kv=0.220000000 kw = 0.0880425 pf=0.92 status=variable vmaxpu=1.5 vminpu=0.92 daily="RES1_3_DU"  
New "Load.BT_299766012_3_M2" bus1="NODE#494890048.1.2.3" phases=3 conn=Delta model=3 kv=0.220000000 kw = 0.0880425 pf=0.92 status=variable vmaxpu=1.5 vminpu=0.92 daily="RES1_3_DU" 









New "Load.BT_ _22_M1" bus1="NODE#1616511019.1.2.3" phases=3 conn=Delta model=2 kv=0.220000000 kw = 0.0540765 pf=0.92 status=variable vmaxpu=1.5 vminpu=0.92 daily="RES1_25_DU"  
New "Load.BT_ _22_M2" bus1="NODE#1616511019.1.2.3" phases=3 conn=Delta model=3 kv=0.220000000 kw = 0.0540765 pf=0.92 status=variable vmaxpu=1.5 vminpu=0.92 daily="RES1_25_DU" 





New "Load.BT_1441740982_1_M1" bus1="NODE#1738035665.1.2.4" phases=1 conn=Delta model=2 kv=0.220000000 kw = 0.113832 pf=0.92 status=variable vmaxpu=1.5 vminpu=0.92 daily="RES1_8_DU"  
New "Load.BT_1441740982_1_M2" bus1="NODE#1738035665.1.2.4" phases=1 conn=Delta model=3 kv=0.220000000 kw = 0.113832 pf=0.92 status=variable vmaxpu=1.5 vminpu=0.92 daily="RES1_8_DU" 
New "Load.BT_295142007_8_M1" bus1="NODE#482826805.2" phases=1 conn=Wye model=2 kv=0.220000000 kw = 0.038626 pf=0.92 status=variable vmaxpu=1.5 vminpu=0.92 daily="RES1_25_DU"  
New "Load.BT_295142007_8_M2" bus1="NODE#482826805.2" phases=1 conn=Wye model=3 kv=0.220000000 kw = 0.038626 pf=0.92 status=variable vmaxpu=1.5 vminpu=0.92 daily="RES1_25_DU" 



New "Load.BT_295432268_1_M1" bus1="NODE#483530960.1.2" phases=1 conn=Delta model=2 kv=0.240000000 kw = 0.0 pf=0.92 status=variable vmaxpu=1.5 vminpu=0.92 daily="RES2_12_DU"  
New "Load.BT_295432268_1_M2" bus1="NODE#483530960.1.2" phases=1 conn=Delta model=3 kv=0.240000000 kw = 0.0 pf=0.92 status=variable vmaxpu=1.5 vminpu=0.92 daily="RES2_12_DU" 


New "Load.BT_324073151_14_M1" bus1="NODE#512390249.1.2.3" phases=3 conn=Delta model=2 kv=0.220000000 kw = 0.0 pf=0.92 status=variable vmaxpu=1.5 vminpu=0.92 daily="COM1_5_DU"  
New "Load.BT_324073151_14_M2" bus1="NODE#512390249.1.2.3" phases=3 conn=Delta model=3 kv=0.220000000 kw = 0.0 pf=0.92 status=variable vmaxpu=1.5 vminpu=0.92 daily="COM1_5_DU" 

New "Load.BT_2072919960_15_M1" bus1="NODE#2385372883.1.2.3.4" phases=3 conn=Delta model=2 kv=0.220000000 kw = 0.0400135 pf=0.92 status=variable vmaxpu=1.5 vminpu=0.92 daily="RES1_21_DU"  
New "Load.BT_2072919960_15_M2" bus1="NODE#2385372883.1.2.3.4" phases=3 conn=Delta model=3 kv=0.220000000 kw = 0.0400135 pf=0.92 status=variable vmaxpu=1.5 vminpu=0.92 daily="RES1_21_DU" 


















...